* NGSPICE file created from tt_um_vaf_555_timer_pex_flat.ext - technology: sky130A





.subckt tt_um_vaf_555_timer_pex clk ena rst_n ua[0] ua[1] ua[2] ua[3] ua[4] ua[5] ua[6] ua[7] ui_in[0] ui_in[1] ui_in[2] ui_in[3]
+ ui_in[4] ui_in[5] ui_in[6] ui_in[7] uio_in[0] uio_in[1] uio_in[2] uio_in[3] uio_in[4] uio_in[5] uio_in[6] uio_in[7] uio_oe[0] uio_oe[1]
+ uio_oe[2] uio_oe[3] uio_oe[4] uio_oe[5] uio_oe[6] uio_oe[7] uio_out[0] uio_out[1] uio_out[2] uio_out[3] uio_out[4] uio_out[5] uio_out[6]
+ uio_out[7] uo_out[0] uo_out[1] uo_out[2] uo_out[3] uo_out[4] uo_out[5] uo_out[6] uo_out[7] VPWR VGND

X0 X_TIMER.out_inv_pex3 uo_out[0].t4 VPWR.t9 VPWR.t8 sky130_fd_pr__pfet_01v8 ad=0.29 pd=2.58 as=0.29 ps=2.58 w=1 l=0.15
X1 X_TIMER.X_COMP_P_BOTTOM.latch_right.t6 X_TIMER.X_COMP_P_BOTTOM.latch_right.t5 VGND.t32 VGND.t31 sky130_fd_pr__nfet_01v8_lvt ad=1.16 pd=8.58 as=1.16 ps=8.58 w=4 l=1
X2 X_TIMER.X_COMP_P_TOP.latch_right.t6 ua[0].t0 X_TIMER.X_COMP_P_TOP.tail.t8 VPWR.t12 sky130_fd_pr__pfet_01v8_lvt ad=2.89855 pd=20.57 as=2.89855 ps=20.57 w=9.995 l=0.35
X3 X_TIMER.X_COMP_P_TOP.tail.t4 X_TIMER.bias_p VPWR.t38 VPWR.t37 sky130_fd_pr__pfet_01v8_lvt ad=2.9 pd=20.58 as=2.9 ps=20.58 w=10 l=1
X4 VPWR.t36 X_TIMER.bias_p X_TIMER.X_COMP_P_BOTTOM.tail.t8 VPWR.t35 sky130_fd_pr__pfet_01v8_lvt ad=2.9 pd=20.58 as=2.9 ps=20.58 w=10 l=1
X5 X_TIMER.qb_sr X_TIMER.X_SR_LATCH.IN_S.t2 VGND.t42 VGND.t7 sky130_fd_pr__nfet_01v8 ad=0.29 pd=2.58 as=0.145 ps=1.29 w=1 l=0.15
X6 X_TIMER.out_inv_pex3 uo_out[0].t5 VGND.t4 VGND.t0 sky130_fd_pr__nfet_01v8 ad=0.29 pd=2.58 as=0.29 ps=2.58 w=1 l=0.15
X7 X_TIMER.X_SR_LATCH.IN_S.t1 X_TIMER.X_COMP_P_BOTTOM.latch_right.t7 VGND.t30 VGND.t28 sky130_fd_pr__nfet_01v8_lvt ad=1.45 pd=10.58 as=1.45 ps=10.58 w=5 l=1
X8 X_TIMER.X_SR_LATCH.IN_R.t0 X_TIMER.X_COMP_P_TOP.out_left.t3 VPWR.t22 VPWR.t21 sky130_fd_pr__pfet_01v8_lvt ad=2.32 pd=16.58 as=2.32 ps=16.58 w=8 l=1
X9 VGND X_TIMER.v0p6 VGND.t39 sky130_fd_pr__res_xhigh_po_1p41 l=7
X10 X_TIMER.X_SR_LATCH.X_NOR_BOTTOM.IN_B ui_in[0].t0 VPWR.t24 VPWR.t23 sky130_fd_pr__pfet_01v8 ad=0.58 pd=4.58 as=0.29 ps=2.29 w=2 l=0.15
X11 X_TIMER.out_inv_pex3 uo_out[0].t6 VGND.t3 VGND.t0 sky130_fd_pr__nfet_01v8 ad=0.29 pd=2.58 as=0.29 ps=2.58 w=1 l=0.15
X12 X_TIMER.bias_1 X_TIMER.bias_2 VGND.t33 sky130_fd_pr__res_xhigh_po_1p41 l=7
X13 X_TIMER.X_COMP_P_BOTTOM.tail.t6 ua[1].t0 X_TIMER.X_COMP_P_BOTTOM.latch_left.t6 VPWR.t1 sky130_fd_pr__pfet_01v8_lvt ad=2.89855 pd=20.57 as=2.89855 ps=20.57 w=9.995 l=0.35
X14 X_TIMER.out_inv_pex1 X_TIMER.q_sr VPWR.t18 VPWR.t17 sky130_fd_pr__pfet_01v8 ad=0.29 pd=2.58 as=0.29 ps=2.58 w=1 l=0.15
X15 X_TIMER.X_COMP_P_TOP.latch_right.t5 ua[0].t1 X_TIMER.X_COMP_P_TOP.tail.t6 VPWR.t11 sky130_fd_pr__pfet_01v8_lvt ad=2.89855 pd=20.57 as=2.89855 ps=20.57 w=9.995 l=0.35
X16 VPWR.t26 X_TIMER.X_COMP_P_BOTTOM.out_left.t3 X_TIMER.X_SR_LATCH.IN_S.t0 VPWR.t25 sky130_fd_pr__pfet_01v8_lvt ad=2.32 pd=16.58 as=2.32 ps=16.58 w=8 l=1
X17 X_TIMER.out_inv_pex1 X_TIMER.q_sr VGND.t15 VGND.t0 sky130_fd_pr__nfet_01v8 ad=0.29 pd=2.58 as=0.29 ps=2.58 w=1 l=0.15
X18 X_TIMER.X_COMP_P_BOTTOM.latch_left.t0 X_TIMER.X_COMP_P_BOTTOM.latch_right.t8 VGND.t29 VGND.t28 sky130_fd_pr__nfet_01v8_lvt ad=1.45 pd=10.58 as=1.45 ps=10.58 w=5 l=1
X19 VGND.t13 X_TIMER.X_COMP_P_TOP.latch_left.t7 X_TIMER.X_COMP_P_TOP.out_left.t2 VGND.t9 sky130_fd_pr__nfet_01v8_lvt ad=1.45 pd=10.58 as=1.45 ps=10.58 w=5 l=1
X20 X_TIMER.X_COMP_P_TOP.latch_left.t3 X_TIMER.v1p2 X_TIMER.X_COMP_P_TOP.tail.t1 VPWR.t11 sky130_fd_pr__pfet_01v8_lvt ad=2.89855 pd=20.57 as=2.89855 ps=20.57 w=9.995 l=0.35
X21 X_TIMER.bias_p X_TIMER.bias_p VPWR.t34 VPWR.t33 sky130_fd_pr__pfet_01v8_lvt ad=2.9 pd=20.58 as=2.9 ps=20.58 w=10 l=1
X22 X_TIMER.X_COMP_P_BOTTOM.tail.t7 ua[1].t1 X_TIMER.X_COMP_P_BOTTOM.latch_left.t5 VPWR.t1 sky130_fd_pr__pfet_01v8_lvt ad=2.89855 pd=20.57 as=2.89855 ps=20.57 w=9.995 l=0.35
X23 X_TIMER.X_COMP_P_TOP.latch_left.t2 X_TIMER.v1p2 X_TIMER.X_COMP_P_TOP.tail.t0 VPWR.t12 sky130_fd_pr__pfet_01v8_lvt ad=2.89855 pd=20.57 as=2.89855 ps=20.57 w=9.995 l=0.35
X24 X_TIMER.out_inv_pex3 uo_out[0].t7 VPWR.t7 VPWR.t6 sky130_fd_pr__pfet_01v8 ad=0.29 pd=2.58 as=0.29 ps=2.58 w=1 l=0.15
X25 X_TIMER.v1p2 X_TIMER.v0p6 VGND.t39 sky130_fd_pr__res_xhigh_po_1p41 l=7
X26 X_TIMER.X_COMP_P_TOP.latch_left.t1 X_TIMER.v1p2 X_TIMER.X_COMP_P_TOP.tail.t3 VPWR.t11 sky130_fd_pr__pfet_01v8_lvt ad=2.89855 pd=20.57 as=2.89855 ps=20.57 w=9.995 l=0.35
X27 X_TIMER.X_SR_LATCH.nand_pex_0.IN_A X_TIMER.X_SR_LATCH.IN_R.t2 VPWR.t14 VPWR.t13 sky130_fd_pr__pfet_01v8 ad=0.29 pd=2.58 as=0.29 ps=2.58 w=1 l=0.15
X28 uo_out[0].t1 X_TIMER.out_inv_pex1 VPWR.t32 VPWR.t31 sky130_fd_pr__pfet_01v8 ad=0.29 pd=2.58 as=0.29 ps=2.58 w=1 l=0.15
X29 X_TIMER.out_inv_pex3 uo_out[0].t8 VPWR.t5 VPWR.t4 sky130_fd_pr__pfet_01v8 ad=0.29 pd=2.58 as=0.29 ps=2.58 w=1 l=0.15
X30 X_TIMER.out_inv_pex3 uo_out[0].t9 VGND.t2 VGND.t0 sky130_fd_pr__nfet_01v8 ad=0.29 pd=2.58 as=0.29 ps=2.58 w=1 l=0.15
X31 X_TIMER.X_COMP_P_BOTTOM.tail.t3 X_TIMER.v0p6 X_TIMER.X_COMP_P_BOTTOM.latch_right.t3 VPWR.t1 sky130_fd_pr__pfet_01v8_lvt ad=2.89855 pd=20.57 as=2.89855 ps=20.57 w=9.995 l=0.35
X32 uo_out[0].t2 X_TIMER.out_inv_pex1 VPWR.t30 VPWR.t29 sky130_fd_pr__pfet_01v8 ad=0.29 pd=2.58 as=0.29 ps=2.58 w=1 l=0.15
X33 VGND.t44 X_TIMER.bias_n X_TIMER.bias_n VGND.t43 sky130_fd_pr__nfet_01v8_lvt ad=1.45 pd=10.58 as=1.45 ps=10.58 w=5 l=1
X34 X_TIMER.q_sr X_TIMER.X_SR_LATCH.X_NOR_BOTTOM.IN_B a_1723_2994# VPWR.t10 sky130_fd_pr__pfet_01v8 ad=0.58 pd=4.58 as=0.29 ps=2.29 w=2 l=0.15
X35 X_TIMER.X_COMP_P_BOTTOM.tail.t2 X_TIMER.v0p6 X_TIMER.X_COMP_P_BOTTOM.latch_right.t2 VPWR.t0 sky130_fd_pr__pfet_01v8_lvt ad=2.89855 pd=20.57 as=2.89855 ps=20.57 w=9.995 l=0.35
X36 X_TIMER.X_SR_LATCH.X_NOR_BOTTOM.IN_B ui_in[0].t1 X_TIMER.X_SR_LATCH.nand_pex_0.drain_mna VGND.t7 sky130_fd_pr__nfet_01v8 ad=0.29 pd=2.58 as=0.145 ps=1.29 w=1 l=0.15
X37 VGND.t49 X_TIMER.qb_sr X_TIMER.q_sr VGND.t7 sky130_fd_pr__nfet_01v8 ad=0.145 pd=1.29 as=0.29 ps=2.58 w=1 l=0.15
X38 uo_out[0].t3 X_TIMER.out_inv_pex1 VGND.t46 VGND.t0 sky130_fd_pr__nfet_01v8 ad=0.29 pd=2.58 as=0.29 ps=2.58 w=1 l=0.15
X39 X_TIMER.out_inv_pex3 uo_out[0].t10 VGND.t1 VGND.t0 sky130_fd_pr__nfet_01v8 ad=0.29 pd=2.58 as=0.29 ps=2.58 w=1 l=0.15
X40 X_TIMER.X_COMP_P_BOTTOM.tail.t1 X_TIMER.v0p6 X_TIMER.X_COMP_P_BOTTOM.latch_right.t1 VPWR.t1 sky130_fd_pr__pfet_01v8_lvt ad=2.89855 pd=20.57 as=2.89855 ps=20.57 w=9.995 l=0.35
X41 uo_out[0].t0 X_TIMER.out_inv_pex1 VGND.t45 VGND.t0 sky130_fd_pr__nfet_01v8 ad=0.29 pd=2.58 as=0.29 ps=2.58 w=1 l=0.15
X42 VGND.t50 X_TIMER.X_COMP_P_TOP.latch_right.t7 X_TIMER.X_SR_LATCH.IN_R.t1 VGND.t34 sky130_fd_pr__nfet_01v8_lvt ad=1.45 pd=10.58 as=1.45 ps=10.58 w=5 l=1
X43 VGND.t12 X_TIMER.X_COMP_P_TOP.latch_left.t4 X_TIMER.X_COMP_P_TOP.latch_left.t5 VGND.t11 sky130_fd_pr__nfet_01v8_lvt ad=1.16 pd=8.58 as=1.16 ps=8.58 w=4 l=1
X44 ua[2].t4 X_TIMER.out_inv_pex3 VGND.t25 VGND.t24 sky130_fd_pr__nfet_01v8_lvt ad=1.45 pd=10.29 as=2.9 ps=20.58 w=10 l=0.35
X45 X_TIMER.qb_sr X_TIMER.X_SR_LATCH.IN_S.t3 a_1347_2994# VPWR.t27 sky130_fd_pr__pfet_01v8 ad=0.58 pd=4.58 as=0.29 ps=2.29 w=2 l=0.15
X46 X_TIMER.X_COMP_P_BOTTOM.tail.t0 X_TIMER.v0p6 X_TIMER.X_COMP_P_BOTTOM.latch_right.t0 VPWR.t0 sky130_fd_pr__pfet_01v8_lvt ad=2.89855 pd=20.57 as=2.89855 ps=20.57 w=9.995 l=0.35
X47 VGND.t14 X_TIMER.q_sr X_TIMER.qb_sr VGND.t7 sky130_fd_pr__nfet_01v8 ad=0.145 pd=1.29 as=0.29 ps=2.58 w=1 l=0.15
X48 X_TIMER.X_COMP_P_TOP.latch_right.t4 ua[0].t2 X_TIMER.X_COMP_P_TOP.tail.t5 VPWR.t11 sky130_fd_pr__pfet_01v8_lvt ad=2.89855 pd=20.57 as=2.89855 ps=20.57 w=9.995 l=0.35
X49 VGND.t23 X_TIMER.out_inv_pex3 ua[2].t3 VGND.t22 sky130_fd_pr__nfet_01v8_lvt ad=1.45 pd=10.29 as=1.45 ps=10.29 w=10 l=0.35
X50 VPWR.t20 X_TIMER.X_COMP_P_BOTTOM.out_left.t0 X_TIMER.X_COMP_P_BOTTOM.out_left.t1 VPWR.t19 sky130_fd_pr__pfet_01v8_lvt ad=2.32 pd=16.58 as=2.32 ps=16.58 w=8 l=1
X51 VPWR.t42 X_TIMER.X_SR_LATCH.nand_pex_0.IN_A X_TIMER.X_SR_LATCH.X_NOR_BOTTOM.IN_B VPWR.t41 sky130_fd_pr__pfet_01v8 ad=0.29 pd=2.29 as=0.58 ps=4.58 w=2 l=0.15
X52 VGND.t21 X_TIMER.out_inv_pex3 ua[2].t2 VGND.t20 sky130_fd_pr__nfet_01v8_lvt ad=1.45 pd=10.29 as=1.45 ps=10.29 w=10 l=0.35
X53 X_TIMER.X_COMP_P_BOTTOM.tail.t4 ua[1].t2 X_TIMER.X_COMP_P_BOTTOM.latch_left.t4 VPWR.t0 sky130_fd_pr__pfet_01v8_lvt ad=2.89855 pd=20.57 as=2.89855 ps=20.57 w=9.995 l=0.35
X54 X_TIMER.bias_3 X_TIMER.bias_2 VGND.t33 sky130_fd_pr__res_xhigh_po_1p41 l=7
X55 X_TIMER.bias_1 X_TIMER.bias_p VGND.t33 sky130_fd_pr__res_xhigh_po_1p41 l=7
X56 ua[2].t1 X_TIMER.out_inv_pex3 VGND.t19 VGND.t18 sky130_fd_pr__nfet_01v8_lvt ad=2.9 pd=20.58 as=1.45 ps=10.29 w=10 l=0.35
X57 ua[2].t0 X_TIMER.out_inv_pex3 VGND.t17 VGND.t16 sky130_fd_pr__nfet_01v8_lvt ad=1.45 pd=10.29 as=1.45 ps=10.29 w=10 l=0.35
X58 X_TIMER.X_COMP_P_BOTTOM.tail.t5 ua[1].t3 X_TIMER.X_COMP_P_BOTTOM.latch_left.t3 VPWR.t0 sky130_fd_pr__pfet_01v8_lvt ad=2.89855 pd=20.57 as=2.89855 ps=20.57 w=9.995 l=0.35
X59 X_TIMER.X_COMP_P_TOP.out_left.t1 X_TIMER.X_COMP_P_TOP.out_left.t0 VPWR.t40 VPWR.t39 sky130_fd_pr__pfet_01v8_lvt ad=2.32 pd=16.58 as=2.32 ps=16.58 w=8 l=1
X60 X_TIMER.X_COMP_P_BOTTOM.latch_left.t2 X_TIMER.X_COMP_P_BOTTOM.latch_left.t1 VGND.t38 VGND.t37 sky130_fd_pr__nfet_01v8_lvt ad=1.16 pd=8.58 as=1.16 ps=8.58 w=4 l=1
X61 X_TIMER.X_SR_LATCH.nand_pex_0.IN_A X_TIMER.X_SR_LATCH.IN_R.t3 VGND.t47 VGND.t7 sky130_fd_pr__nfet_01v8 ad=0.29 pd=2.58 as=0.29 ps=2.58 w=1 l=0.15
X62 X_TIMER.v1p2 VPWR VGND.t39 sky130_fd_pr__res_xhigh_po_1p41 l=7
X63 X_TIMER.bias_3 X_TIMER.bias_n VGND.t33 sky130_fd_pr__res_xhigh_po_1p41 l=7
X64 VGND.t10 X_TIMER.X_COMP_P_TOP.latch_left.t8 X_TIMER.X_COMP_P_TOP.latch_right.t0 VGND.t9 sky130_fd_pr__nfet_01v8_lvt ad=1.45 pd=10.58 as=1.45 ps=10.58 w=5 l=1
X65 VGND.t27 X_TIMER.X_COMP_P_TOP.latch_right.t1 X_TIMER.X_COMP_P_TOP.latch_right.t2 VGND.t26 sky130_fd_pr__nfet_01v8_lvt ad=1.16 pd=8.58 as=1.16 ps=8.58 w=4 l=1
X66 a_1723_2994# X_TIMER.qb_sr VPWR.t44 VPWR.t43 sky130_fd_pr__pfet_01v8 ad=0.29 pd=2.29 as=0.58 ps=4.58 w=2 l=0.15
X67 X_TIMER.X_SR_LATCH.nand_pex_0.drain_mna X_TIMER.X_SR_LATCH.nand_pex_0.IN_A VGND.t48 VGND.t7 sky130_fd_pr__nfet_01v8 ad=0.145 pd=1.29 as=0.29 ps=2.58 w=1 l=0.15
X68 X_TIMER.X_COMP_P_BOTTOM.out_left.t2 X_TIMER.X_COMP_P_BOTTOM.latch_left.t7 VGND.t36 VGND.t5 sky130_fd_pr__nfet_01v8_lvt ad=1.45 pd=10.58 as=1.45 ps=10.58 w=5 l=1
X69 X_TIMER.X_COMP_P_TOP.latch_left.t0 X_TIMER.v1p2 X_TIMER.X_COMP_P_TOP.tail.t2 VPWR.t12 sky130_fd_pr__pfet_01v8_lvt ad=2.89855 pd=20.57 as=2.89855 ps=20.57 w=9.995 l=0.35
X70 a_1347_2994# X_TIMER.q_sr VPWR.t16 VPWR.t15 sky130_fd_pr__pfet_01v8 ad=0.29 pd=2.29 as=0.58 ps=4.58 w=2 l=0.15
X71 X_TIMER.q_sr X_TIMER.X_SR_LATCH.X_NOR_BOTTOM.IN_B VGND.t8 VGND.t7 sky130_fd_pr__nfet_01v8 ad=0.29 pd=2.58 as=0.145 ps=1.29 w=1 l=0.15
X72 VGND.t35 X_TIMER.X_COMP_P_TOP.latch_right.t8 X_TIMER.X_COMP_P_TOP.latch_left.t6 VGND.t34 sky130_fd_pr__nfet_01v8_lvt ad=1.45 pd=10.58 as=1.45 ps=10.58 w=5 l=1
X73 X_TIMER.X_COMP_P_TOP.latch_right.t3 ua[0].t3 X_TIMER.X_COMP_P_TOP.tail.t7 VPWR.t12 sky130_fd_pr__pfet_01v8_lvt ad=2.89855 pd=20.57 as=2.89855 ps=20.57 w=9.995 l=0.35
X74 X_TIMER.out_inv_pex3 uo_out[0].t11 VPWR.t3 VPWR.t2 sky130_fd_pr__pfet_01v8 ad=0.29 pd=2.58 as=0.29 ps=2.58 w=1 l=0.15
X75 X_TIMER.X_COMP_P_BOTTOM.latch_right.t4 X_TIMER.X_COMP_P_BOTTOM.latch_left.t8 VGND.t6 VGND.t5 sky130_fd_pr__nfet_01v8_lvt ad=1.45 pd=10.58 as=1.45 ps=10.58 w=5 l=1
R0 uo_out[0].n6 uo_out[0].t5 411.07
R1 uo_out[0].n5 uo_out[0].t9 411.07
R2 uo_out[0].n4 uo_out[0].t10 411.07
R3 uo_out[0].n3 uo_out[0].t6 411.07
R4 uo_out[0].n6 uo_out[0].t11 400.375
R5 uo_out[0].n5 uo_out[0].t7 400.375
R6 uo_out[0].n4 uo_out[0].t8 400.375
R7 uo_out[0].n2 uo_out[0].t4 395.873
R8 uo_out[0].n1 uo_out[0].t1 228.959
R9 uo_out[0].n0 uo_out[0].t2 228.959
R10 uo_out[0].n1 uo_out[0].t3 84.8864
R11 uo_out[0].n0 uo_out[0].t0 84.8864
R12 uo_out[0].n7 uo_out[0] 39.2126
R13 uo_out[0] uo_out[0].n6 28.1147
R14 uo_out[0].n3 uo_out[0].n2 4.50234
R15 uo_out[0].n1 uo_out[0] 0.8755
R16 uo_out[0].n2 uo_out[0] 0.800132
R17 uo_out[0] uo_out[0].n3 0.382853
R18 uo_out[0] uo_out[0].n4 0.382853
R19 uo_out[0] uo_out[0].n5 0.382853
R20 uo_out[0].n3 uo_out[0] 0.378389
R21 uo_out[0].n4 uo_out[0] 0.378389
R22 uo_out[0].n5 uo_out[0] 0.378389
R23 uo_out[0].n6 uo_out[0] 0.378389
R24 uo_out[0].n7 uo_out[0] 0.120692
R25 uo_out[0] uo_out[0].n7 0.116241
R26 uo_out[0] uo_out[0].n1 0.0924118
R27 uo_out[0] uo_out[0].n0 0.0924118
R28 VPWR.n92 VPWR.n41 5809.41
R29 VPWR.n92 VPWR.n91 5809.41
R30 VPWR.n100 VPWR.n36 5809.41
R31 VPWR.n100 VPWR.n99 5809.41
R32 VPWR.n87 VPWR.n43 5784.71
R33 VPWR.n89 VPWR.n43 5784.71
R34 VPWR.n69 VPWR.n67 5784.71
R35 VPWR.n69 VPWR.n68 5784.71
R36 VPWR.n121 VPWR.n117 4912.94
R37 VPWR.n118 VPWR.n115 4912.94
R38 VPWR.n59 VPWR.n38 4912.94
R39 VPWR.n96 VPWR.n38 4912.94
R40 VPWR.n59 VPWR.n23 4912.94
R41 VPWR.n96 VPWR.n23 4912.94
R42 VPWR.n153 VPWR.n6 4912.94
R43 VPWR.n152 VPWR.n6 4912.94
R44 VPWR.n152 VPWR.n5 4912.94
R45 VPWR.n153 VPWR.n5 4912.94
R46 VPWR.n104 VPWR.n32 4208.75
R47 VPWR.n108 VPWR.n107 4207.06
R48 VPWR.n75 VPWR.n65 4207.06
R49 VPWR.n78 VPWR.n57 4205.22
R50 VPWR.n87 VPWR.n47 4020
R51 VPWR.n90 VPWR.n89 4020
R52 VPWR.n67 VPWR.n11 4020
R53 VPWR.n68 VPWR.n12 4020
R54 VPWR.n47 VPWR.n41 3998.82
R55 VPWR.n91 VPWR.n90 3998.82
R56 VPWR.n36 VPWR.n11 3998.82
R57 VPWR.n99 VPWR.n12 3998.82
R58 VPWR.n57 VPWR.n26 3409.41
R59 VPWR.n108 VPWR.n26 3409.41
R60 VPWR.n65 VPWR.n14 3409.41
R61 VPWR.n32 VPWR.n14 3409.41
R62 VPWR.n47 VPWR.n42 1789.41
R63 VPWR.n90 VPWR.n42 1789.41
R64 VPWR.n148 VPWR.n11 1789.41
R65 VPWR.n148 VPWR.n12 1789.41
R66 VPWR.n119 VPWR.n118 1373.18
R67 VPWR.n121 VPWR.n120 1373.18
R68 VPWR.n194 VPWR.n181 1297.82
R69 VPWR.n194 VPWR.n162 1289.14
R70 VPWR.n197 VPWR.n162 1146.76
R71 VPWR.n187 VPWR.n181 1136.47
R72 VPWR.n61 VPWR.n56 981.356
R73 VPWR.n64 VPWR.n63 981.356
R74 VPWR.n51 VPWR.n13 981.356
R75 VPWR.n50 VPWR.n27 981.356
R76 VPWR.n168 VPWR.n167 928.236
R77 VPWR.n168 VPWR.n163 928.236
R78 VPWR.n179 VPWR.n163 928.236
R79 VPWR.n180 VPWR.n179 928.236
R80 VPWR.n180 VPWR.n160 928.236
R81 VPWR.n197 VPWR.n160 924.707
R82 VPWR.n78 VPWR.n56 801.5
R83 VPWR.n104 VPWR.n27 800.322
R84 VPWR.n62 VPWR.n26 797.648
R85 VPWR.n63 VPWR.n62 797.648
R86 VPWR.n75 VPWR.n56 797.648
R87 VPWR.n146 VPWR.n13 797.648
R88 VPWR.n146 VPWR.n14 797.648
R89 VPWR.n107 VPWR.n27 797.648
R90 VPWR.n116 VPWR.n114 524.048
R91 VPWR.n123 VPWR.n114 524.048
R92 VPWR.n122 VPWR.n116 524.048
R93 VPWR.n123 VPWR.n122 524.048
R94 VPWR.n93 VPWR.n40 447.06
R95 VPWR.n101 VPWR.n34 447.06
R96 VPWR.n70 VPWR.n66 444.515
R97 VPWR.n86 VPWR.n81 444.515
R98 VPWR.n66 VPWR.n10 428.8
R99 VPWR.n86 VPWR.n85 428.8
R100 VPWR.n34 VPWR.n10 426.541
R101 VPWR.n85 VPWR.n40 426.541
R102 VPWR.t17 VPWR.t10 417.711
R103 VPWR.t43 VPWR.t27 417.711
R104 VPWR.t23 VPWR.t15 411.909
R105 VPWR.t13 VPWR.t41 397.406
R106 VPWR.t6 VPWR.t2 381.45
R107 VPWR.t6 VPWR.t4 381.45
R108 VPWR.t4 VPWR.t8 381.45
R109 VPWR.t31 VPWR.t8 381.45
R110 VPWR.t29 VPWR.t31 381.45
R111 VPWR.t17 VPWR.t29 380
R112 VPWR.n144 VPWR.n15 363.671
R113 VPWR.n55 VPWR.n54 363.671
R114 VPWR.n143 VPWR.n16 363.295
R115 VPWR.n53 VPWR.n52 363.295
R116 VPWR.n74 VPWR.n15 362.37
R117 VPWR.n79 VPWR.n55 362.37
R118 VPWR.n103 VPWR.n16 361.584
R119 VPWR.n52 VPWR.n28 361.584
R120 VPWR.n158 VPWR.t30 228.663
R121 VPWR.n182 VPWR.t18 228.663
R122 VPWR.n185 VPWR.t14 228.663
R123 VPWR.n165 VPWR.t3 228.663
R124 VPWR.n171 VPWR.t7 228.663
R125 VPWR.n173 VPWR.t5 228.663
R126 VPWR.n176 VPWR.t9 228.663
R127 VPWR.n174 VPWR.t32 228.663
R128 VPWR.n190 VPWR.n189 202.965
R129 VPWR.n150 VPWR.n149 190.871
R130 VPWR.n149 VPWR.n10 190.871
R131 VPWR.n85 VPWR.n84 190.871
R132 VPWR.n84 VPWR.n83 190.871
R133 VPWR.n147 VPWR.t39 175.422
R134 VPWR.t25 VPWR.t37 171.423
R135 VPWR.n106 VPWR.n29 143.065
R136 VPWR.n76 VPWR.n60 135.065
R137 VPWR.n192 VPWR.t16 114.451
R138 VPWR.n184 VPWR.t44 114.451
R139 VPWR.n169 VPWR.n166 99.0123
R140 VPWR.n169 VPWR.n164 99.0123
R141 VPWR.n178 VPWR.n164 99.0123
R142 VPWR.n178 VPWR.n159 99.0123
R143 VPWR.n199 VPWR.n159 99.0123
R144 VPWR.n199 VPWR.n198 98.6358
R145 VPWR.n188 VPWR.n187 97.1505
R146 VPWR.n187 VPWR.t13 92.5005
R147 VPWR.n167 VPWR.n166 92.5005
R148 VPWR.t2 VPWR.n167 92.5005
R149 VPWR.n169 VPWR.n168 92.5005
R150 VPWR.n168 VPWR.t6 92.5005
R151 VPWR.n164 VPWR.n163 92.5005
R152 VPWR.t4 VPWR.n163 92.5005
R153 VPWR.n179 VPWR.n178 92.5005
R154 VPWR.n179 VPWR.t8 92.5005
R155 VPWR.n180 VPWR.n159 92.5005
R156 VPWR.t31 VPWR.n180 92.5005
R157 VPWR.n199 VPWR.n160 92.5005
R158 VPWR.t29 VPWR.n160 92.5005
R159 VPWR.n198 VPWR.n197 92.5005
R160 VPWR.n197 VPWR.t17 92.5005
R161 VPWR.n145 VPWR.n144 85.0829
R162 VPWR.n145 VPWR.n4 85.0829
R163 VPWR.n110 VPWR.n24 85.0829
R164 VPWR.n54 VPWR.n24 85.0829
R165 VPWR.t41 VPWR.n186 69.6188
R166 VPWR.n196 VPWR.t43 68.1684
R167 VPWR.n195 VPWR.t15 68.1684
R168 VPWR.n150 VPWR.n9 66.7857
R169 VPWR.n83 VPWR.n25 66.7857
R170 VPWR.n151 VPWR.n8 66.1931
R171 VPWR.n82 VPWR.n44 66.1931
R172 VPWR.n105 VPWR.n30 61.6251
R173 VPWR.n77 VPWR.n58 61.4433
R174 VPWR.t10 VPWR.n196 59.4661
R175 VPWR.t27 VPWR.n195 59.4661
R176 VPWR.n186 VPWR.t23 58.0158
R177 VPWR.n31 VPWR.n4 52.3937
R178 VPWR.n110 VPWR.n109 52.3937
R179 VPWR.n154 VPWR.n3 51.2005
R180 VPWR.n111 VPWR.n22 51.2005
R181 VPWR.n183 VPWR.n162 49.3505
R182 VPWR.n194 VPWR.n193 49.3505
R183 VPWR.n190 VPWR.n181 46.2505
R184 VPWR.n186 VPWR.n181 46.2505
R185 VPWR.n196 VPWR.n162 46.2505
R186 VPWR.n195 VPWR.n194 46.2505
R187 VPWR.n118 VPWR.n114 37.0005
R188 VPWR.n122 VPWR.n121 37.0005
R189 VPWR.n75 VPWR.n74 37.0005
R190 VPWR.n76 VPWR.n75 37.0005
R191 VPWR.n72 VPWR.n5 37.0005
R192 VPWR.n45 VPWR.n5 37.0005
R193 VPWR.n33 VPWR.n6 37.0005
R194 VPWR.n29 VPWR.n6 37.0005
R195 VPWR.n104 VPWR.n103 37.0005
R196 VPWR.n105 VPWR.n104 37.0005
R197 VPWR.n146 VPWR.n145 37.0005
R198 VPWR.n147 VPWR.n146 37.0005
R199 VPWR.n107 VPWR.n28 37.0005
R200 VPWR.n107 VPWR.n106 37.0005
R201 VPWR.n96 VPWR.n95 37.0005
R202 VPWR.n97 VPWR.n96 37.0005
R203 VPWR.n59 VPWR.n49 37.0005
R204 VPWR.n60 VPWR.n59 37.0005
R205 VPWR.n79 VPWR.n78 37.0005
R206 VPWR.n78 VPWR.n77 37.0005
R207 VPWR.n62 VPWR.n24 37.0005
R208 VPWR.n62 VPWR.n7 37.0005
R209 VPWR.t21 VPWR.t1 30.5401
R210 VPWR.t19 VPWR.n37 30.1765
R211 VPWR.n130 VPWR.t22 29.4286
R212 VPWR.n129 VPWR.t26 29.4286
R213 VPWR.n139 VPWR.t40 29.4286
R214 VPWR.n138 VPWR.t20 29.4286
R215 VPWR.n73 VPWR.n70 26.6787
R216 VPWR.n81 VPWR.n80 26.6787
R217 VPWR.n94 VPWR.n93 26.63
R218 VPWR.n102 VPWR.n101 26.63
R219 VPWR.n124 VPWR.t34 23.3739
R220 VPWR.n111 VPWR.t38 23.0294
R221 VPWR.n154 VPWR.t36 23.0294
R222 VPWR.n48 VPWR.n22 19.0689
R223 VPWR.n71 VPWR.n3 19.0689
R224 VPWR.n102 VPWR.n33 17.4344
R225 VPWR.n95 VPWR.n94 17.4344
R226 VPWR.n109 VPWR.n25 16.8923
R227 VPWR.n31 VPWR.n9 16.8923
R228 VPWR.n73 VPWR.n72 16.6793
R229 VPWR.n80 VPWR.n49 16.6793
R230 VPWR.n58 VPWR.n43 14.4131
R231 VPWR.n100 VPWR.n30 14.4131
R232 VPWR.n189 VPWR.t24 14.283
R233 VPWR.n189 VPWR.t42 14.283
R234 VPWR.n93 VPWR.n92 14.2313
R235 VPWR.n92 VPWR.n30 14.2313
R236 VPWR.n70 VPWR.n69 14.2313
R237 VPWR.n69 VPWR.n58 14.2313
R238 VPWR.n149 VPWR.n148 14.2313
R239 VPWR.n148 VPWR.n147 14.2313
R240 VPWR.n101 VPWR.n100 14.2313
R241 VPWR.n84 VPWR.n42 14.2313
R242 VPWR.n42 VPWR.n7 14.2313
R243 VPWR.n81 VPWR.n43 14.2313
R244 VPWR.n88 VPWR.n45 8.7261
R245 VPWR.n32 VPWR.n31 7.11588
R246 VPWR.t19 VPWR.n32 7.11588
R247 VPWR.n65 VPWR.n3 7.11588
R248 VPWR.n65 VPWR.t25 7.11588
R249 VPWR.n50 VPWR.n16 7.11588
R250 VPWR.n50 VPWR.t19 7.11588
R251 VPWR.n64 VPWR.n15 7.11588
R252 VPWR.t25 VPWR.n64 7.11588
R253 VPWR.n61 VPWR.n55 7.11588
R254 VPWR.n61 VPWR.t21 7.11588
R255 VPWR.n52 VPWR.n51 7.11588
R256 VPWR.n51 VPWR.t39 7.11588
R257 VPWR.n57 VPWR.n22 7.11588
R258 VPWR.t21 VPWR.n57 7.11588
R259 VPWR.n109 VPWR.n108 7.11588
R260 VPWR.n108 VPWR.t39 7.11588
R261 VPWR.n117 VPWR.n116 5.78175
R262 VPWR.n123 VPWR.n115 5.78175
R263 VPWR.n154 VPWR.n153 5.78175
R264 VPWR.n153 VPWR.t35 5.78175
R265 VPWR.n67 VPWR.n8 5.78175
R266 VPWR.n67 VPWR.n46 5.78175
R267 VPWR.n152 VPWR.n151 5.78175
R268 VPWR.t35 VPWR.n152 5.78175
R269 VPWR.n99 VPWR.n34 5.78175
R270 VPWR.n99 VPWR.n98 5.78175
R271 VPWR.n68 VPWR.n66 5.78175
R272 VPWR.n68 VPWR.n46 5.78175
R273 VPWR.n36 VPWR.n35 5.78175
R274 VPWR.n98 VPWR.n36 5.78175
R275 VPWR.n91 VPWR.n39 5.78175
R276 VPWR.n91 VPWR.n37 5.78175
R277 VPWR.n82 VPWR.n38 5.78175
R278 VPWR.n38 VPWR.t37 5.78175
R279 VPWR.n89 VPWR.n44 5.78175
R280 VPWR.n89 VPWR.n88 5.78175
R281 VPWR.n87 VPWR.n86 5.78175
R282 VPWR.n88 VPWR.n87 5.78175
R283 VPWR.n41 VPWR.n40 5.78175
R284 VPWR.n41 VPWR.n37 5.78175
R285 VPWR.n111 VPWR.n23 5.78175
R286 VPWR.n23 VPWR.t37 5.78175
R287 VPWR.n166 VPWR.n165 4.74533
R288 VPWR.n103 VPWR.n102 4.7119
R289 VPWR.n94 VPWR.n28 4.7119
R290 VPWR.n74 VPWR.n73 4.70083
R291 VPWR.n80 VPWR.n79 4.70083
R292 VPWR.n200 VPWR.n199 4.6505
R293 VPWR.n198 VPWR.n161 4.6505
R294 VPWR.n170 VPWR.n169 4.6505
R295 VPWR.n172 VPWR.n164 4.6505
R296 VPWR.n178 VPWR.n177 4.6505
R297 VPWR.n175 VPWR.n159 4.6505
R298 VPWR.n119 VPWR.n117 4.16148
R299 VPWR.n120 VPWR.n115 4.16148
R300 VPWR.n132 VPWR 4.11685
R301 VPWR.t35 VPWR.n7 3.81795
R302 VPWR.n134 VPWR.n133 3.36117
R303 VPWR.n191 VPWR.n190 3.1005
R304 VPWR.n113 VPWR.n112 2.9268
R305 VPWR.n155 VPWR.n1 2.92408
R306 VPWR.n156 VPWR.n155 2.92408
R307 VPWR.n112 VPWR.n21 2.92137
R308 VPWR.n141 VPWR 2.25915
R309 VPWR.n131 VPWR 2.19312
R310 VPWR.n71 VPWR.n8 1.77828
R311 VPWR.n48 VPWR.n44 1.77828
R312 VPWR.n120 VPWR.t33 1.61687
R313 VPWR.t33 VPWR.n119 1.61687
R314 VPWR.n151 VPWR.n150 1.3042
R315 VPWR.n83 VPWR.n82 1.3042
R316 VPWR.n140 VPWR 1.20337
R317 VPWR.n154 VPWR.n4 1.19372
R318 VPWR.n111 VPWR.n110 1.19372
R319 VPWR.t0 VPWR.n97 1.0912
R320 VPWR.n64 VPWR.n61 1.01745
R321 VPWR.n63 VPWR.n13 1.01745
R322 VPWR.n51 VPWR.n50 1.01745
R323 VPWR.n19 VPWR 0.941142
R324 VPWR.n133 VPWR 0.856789
R325 VPWR.n20 VPWR.n0 0.830381
R326 VPWR VPWR.n191 0.66955
R327 VPWR.n203 VPWR 0.662254
R328 VPWR.n135 VPWR 0.590885
R329 VPWR.n183 VPWR 0.568535
R330 VPWR.n193 VPWR 0.564096
R331 VPWR VPWR.n188 0.55213
R332 VPWR.t12 VPWR.n46 0.54585
R333 VPWR.n98 VPWR.t11 0.54585
R334 VPWR.n203 VPWR.n202 0.424031
R335 VPWR.n170 VPWR 0.417194
R336 VPWR.n172 VPWR 0.417194
R337 VPWR.n177 VPWR 0.417194
R338 VPWR VPWR.n175 0.417194
R339 VPWR.n202 VPWR.n157 0.416109
R340 VPWR.n161 VPWR 0.41479
R341 VPWR.n136 VPWR 0.395992
R342 VPWR.n144 VPWR.n143 0.376971
R343 VPWR.n54 VPWR.n53 0.376971
R344 VPWR.n126 VPWR.n125 0.371147
R345 VPWR.n201 VPWR.n200 0.352871
R346 VPWR.n155 VPWR.n154 0.344944
R347 VPWR.n112 VPWR.n111 0.344944
R348 VPWR.n191 VPWR 0.32387
R349 VPWR.n124 VPWR.n123 0.3105
R350 VPWR.n72 VPWR.n71 0.307571
R351 VPWR.n49 VPWR.n48 0.307571
R352 VPWR.n140 VPWR.n139 0.27529
R353 VPWR.n138 VPWR.n137 0.27529
R354 VPWR.n131 VPWR.n130 0.27529
R355 VPWR.n137 VPWR 0.270402
R356 VPWR.n125 VPWR.n124 0.259149
R357 VPWR.n128 VPWR.n127 0.234786
R358 VPWR.n202 VPWR.n201 0.225984
R359 VPWR.n21 VPWR.n20 0.209875
R360 VPWR.n157 VPWR.n156 0.209435
R361 VPWR.n184 VPWR.n183 0.202254
R362 VPWR.n193 VPWR.n192 0.202254
R363 VPWR.n77 VPWR.n76 0.182283
R364 VPWR.n60 VPWR.n45 0.182283
R365 VPWR.n88 VPWR.n46 0.182283
R366 VPWR.t1 VPWR.t12 0.182283
R367 VPWR.t25 VPWR.t21 0.182283
R368 VPWR.t35 VPWR.t37 0.182283
R369 VPWR.n147 VPWR.n7 0.182283
R370 VPWR.t19 VPWR.t39 0.182283
R371 VPWR.n98 VPWR.n37 0.182283
R372 VPWR.t11 VPWR.t0 0.182283
R373 VPWR.n97 VPWR.n29 0.182283
R374 VPWR.n106 VPWR.n105 0.182283
R375 VPWR.n35 VPWR.n33 0.178728
R376 VPWR.n95 VPWR.n39 0.178728
R377 VPWR.n129 VPWR.n128 0.177874
R378 VPWR.n142 VPWR.n141 0.169731
R379 VPWR.n19 VPWR.n17 0.162038
R380 VPWR.n136 VPWR.n135 0.152423
R381 VPWR.n133 VPWR.n132 0.152423
R382 VPWR.n143 VPWR.n142 0.133357
R383 VPWR.n53 VPWR.n17 0.133357
R384 VPWR.n125 VPWR.n0 0.122632
R385 VPWR.n188 VPWR.n185 0.120065
R386 VPWR.n127 VPWR.n126 0.116433
R387 VPWR.n128 VPWR.n19 0.101757
R388 VPWR.n35 VPWR.n9 0.0977152
R389 VPWR.n39 VPWR.n25 0.0977152
R390 VPWR.n185 VPWR 0.0956087
R391 VPWR.n200 VPWR.n158 0.0953276
R392 VPWR.n182 VPWR.n161 0.0953276
R393 VPWR.n171 VPWR.n170 0.0953276
R394 VPWR.n173 VPWR.n172 0.0953276
R395 VPWR.n177 VPWR.n176 0.0953276
R396 VPWR.n175 VPWR.n174 0.0953276
R397 VPWR.n134 VPWR.n18 0.0882225
R398 VPWR VPWR.n158 0.075931
R399 VPWR VPWR.n182 0.075931
R400 VPWR.n165 VPWR 0.075931
R401 VPWR VPWR.n171 0.075931
R402 VPWR VPWR.n173 0.075931
R403 VPWR.n176 VPWR 0.075931
R404 VPWR.n174 VPWR 0.075931
R405 VPWR.n113 VPWR.n20 0.068875
R406 VPWR.n157 VPWR.n1 0.067875
R407 VPWR.n156 VPWR.n2 0.0652508
R408 VPWR.n201 VPWR 0.0648236
R409 VPWR.n126 VPWR.n1 0.06425
R410 VPWR.n21 VPWR.n2 0.0640173
R411 VPWR.n126 VPWR.n113 0.064
R412 VPWR VPWR.n203 0.061493
R413 VPWR VPWR.n184 0.0597105
R414 VPWR.n192 VPWR 0.0597105
R415 VPWR.n135 VPWR.n134 0.0323455
R416 VPWR.n127 VPWR.n2 0.0187405
R417 VPWR.n203 VPWR.n0 0.0120348
R418 VPWR.n142 VPWR.n17 0.00146154
R419 VPWR.n18 VPWR 0.00119261
R420 VPWR.n141 VPWR.n140 0.0010123
R421 VPWR.n137 VPWR.n136 0.0010123
R422 VPWR.n132 VPWR.n131 0.0010123
R423 VPWR.n18 VPWR 0.00100029
R424 VPWR.n139 VPWR.n138 0.000849162
R425 VPWR.n130 VPWR.n129 0.000849162
R426 X_TIMER.X_COMP_P_BOTTOM.latch_right.n4 X_TIMER.X_COMP_P_BOTTOM.latch_right.t7 114.778
R427 X_TIMER.X_COMP_P_BOTTOM.latch_right.n4 X_TIMER.X_COMP_P_BOTTOM.latch_right.t8 106.572
R428 X_TIMER.X_COMP_P_BOTTOM.latch_right.n3 X_TIMER.X_COMP_P_BOTTOM.latch_right.t1 28.4736
R429 X_TIMER.X_COMP_P_BOTTOM.latch_right.n3 X_TIMER.X_COMP_P_BOTTOM.latch_right.t3 28.057
R430 X_TIMER.X_COMP_P_BOTTOM.latch_right.n0 X_TIMER.X_COMP_P_BOTTOM.latch_right.t0 27.8467
R431 X_TIMER.X_COMP_P_BOTTOM.latch_right.n0 X_TIMER.X_COMP_P_BOTTOM.latch_right.t2 27.4301
R432 X_TIMER.X_COMP_P_BOTTOM.latch_right.n1 X_TIMER.X_COMP_P_BOTTOM.latch_right.t6 22.0141
R433 X_TIMER.X_COMP_P_BOTTOM.latch_right.n0 X_TIMER.X_COMP_P_BOTTOM.latch_right.t4 20.4334
R434 X_TIMER.X_COMP_P_BOTTOM.latch_right.n2 X_TIMER.X_COMP_P_BOTTOM.latch_right.n1 0.582966
R435 X_TIMER.X_COMP_P_BOTTOM.latch_right.n2 X_TIMER.X_COMP_P_BOTTOM.latch_right.n4 1.69623
R436 X_TIMER.X_COMP_P_BOTTOM.latch_right.n2 X_TIMER.X_COMP_P_BOTTOM.latch_right.t5 95.1763
R437 X_TIMER.X_COMP_P_BOTTOM.latch_right X_TIMER.X_COMP_P_BOTTOM.latch_right.n0 14.0375
R438 X_TIMER.X_COMP_P_BOTTOM.latch_right X_TIMER.X_COMP_P_BOTTOM.latch_right.n1 0.612947
R439 X_TIMER.X_COMP_P_BOTTOM.latch_right X_TIMER.X_COMP_P_BOTTOM.latch_right.n3 0.516125
R440 VGND.n133 VGND.n132 5.73231e+06
R441 VGND.n256 VGND.n255 3.08487e+06
R442 VGND.n255 VGND.n254 11223.8
R443 VGND.n215 VGND.n68 9119.94
R444 VGND.n216 VGND.n68 9119.94
R445 VGND.n215 VGND.n69 9119.94
R446 VGND.n216 VGND.n69 9119.94
R447 VGND.n248 VGND.n227 8494.18
R448 VGND.n248 VGND.n238 8494.18
R449 VGND.n253 VGND.n228 8494.18
R450 VGND.n234 VGND.n228 8494.18
R451 VGND.n37 VGND.n27 8494.18
R452 VGND.n257 VGND.n27 8494.18
R453 VGND.n275 VGND.n21 8494.18
R454 VGND.n275 VGND.n26 8494.18
R455 VGND.n274 VGND.n34 7555.55
R456 VGND.n237 VGND.n236 7120.97
R457 VGND.n240 VGND.n237 7120.97
R458 VGND.n249 VGND.n229 7120.97
R459 VGND.n249 VGND.n235 7120.97
R460 VGND.n36 VGND.n31 7120.97
R461 VGND.n47 VGND.n31 7120.97
R462 VGND.n39 VGND.n32 7120.97
R463 VGND.n46 VGND.n32 7120.97
R464 VGND.n38 VGND.n33 7120.97
R465 VGND.n258 VGND.n33 7120.97
R466 VGND.n160 VGND.n80 5440.68
R467 VGND.n299 VGND.n7 5440.68
R468 VGND.n280 VGND.n22 5440.68
R469 VGND.n280 VGND.n23 5440.68
R470 VGND.n138 VGND.n96 5255.26
R471 VGND.n124 VGND.n120 5255.26
R472 VGND.n29 VGND.n22 5255.26
R473 VGND.n29 VGND.n23 5255.26
R474 VGND.n134 VGND.n100 4536.79
R475 VGND.n135 VGND.n100 4536.79
R476 VGND.n181 VGND.n71 4536.79
R477 VGND.n181 VGND.n72 4536.79
R478 VGND.n291 VGND.n19 4536.79
R479 VGND.n292 VGND.n19 4536.79
R480 VGND.n131 VGND.n102 4536.79
R481 VGND.n131 VGND.n101 4536.79
R482 VGND.n96 VGND.n79 4131.21
R483 VGND.n146 VGND.n84 4131.21
R484 VGND.n159 VGND.n85 4131.21
R485 VGND.n148 VGND.n147 4131.21
R486 VGND.n154 VGND.n83 4131.21
R487 VGND.n120 VGND.n6 4131.21
R488 VGND.n113 VGND.n112 4131.21
R489 VGND.n293 VGND.n10 4131.21
R490 VGND.n119 VGND.n11 4131.21
R491 VGND.n298 VGND.n12 4131.21
R492 VGND.n160 VGND.n79 3945.79
R493 VGND.n146 VGND.n97 3945.79
R494 VGND.n159 VGND.n84 3945.79
R495 VGND.n147 VGND.n94 3945.79
R496 VGND.n148 VGND.n83 3945.79
R497 VGND.n299 VGND.n6 3945.79
R498 VGND.n113 VGND.n107 3945.79
R499 VGND.n112 VGND.n10 3945.79
R500 VGND.n119 VGND.n106 3945.79
R501 VGND.n298 VGND.n11 3945.79
R502 VGND.n264 VGND.n256 3787.12
R503 VGND.n134 VGND.n97 3227.32
R504 VGND.n85 VGND.n71 3227.32
R505 VGND.n135 VGND.n94 3227.32
R506 VGND.n154 VGND.n72 3227.32
R507 VGND.n107 VGND.n102 3227.32
R508 VGND.n293 VGND.n292 3227.32
R509 VGND.n106 VGND.n101 3227.32
R510 VGND.n291 VGND.n12 3227.32
R511 VGND.t33 VGND.n274 3048.25
R512 VGND.n264 VGND.n48 2152.87
R513 VGND.n61 VGND.n52 2131.24
R514 VGND.n254 VGND.n226 2128.64
R515 VGND.n221 VGND.n53 1904.94
R516 VGND.n225 VGND.n49 1692.69
R517 VGND.n211 VGND.n209 1523.85
R518 VGND.n209 VGND.n208 1523.85
R519 VGND.n205 VGND.n204 1523.85
R520 VGND.n236 VGND.n227 1373.21
R521 VGND.n241 VGND.n235 1373.21
R522 VGND.n241 VGND.n240 1373.21
R523 VGND.n240 VGND.n238 1373.21
R524 VGND.n253 VGND.n229 1373.21
R525 VGND.n229 VGND.n224 1373.21
R526 VGND.n236 VGND.n224 1373.21
R527 VGND.n235 VGND.n234 1373.21
R528 VGND.n37 VGND.n36 1373.21
R529 VGND.n265 VGND.n46 1373.21
R530 VGND.n265 VGND.n47 1373.21
R531 VGND.n257 VGND.n47 1373.21
R532 VGND.n273 VGND.n38 1373.21
R533 VGND.n273 VGND.n39 1373.21
R534 VGND.n39 VGND.n35 1373.21
R535 VGND.n36 VGND.n35 1373.21
R536 VGND.n258 VGND.n26 1373.21
R537 VGND.n263 VGND.n258 1373.21
R538 VGND.n263 VGND.n46 1373.21
R539 VGND.n38 VGND.n21 1373.21
R540 VGND.n256 VGND.n49 1351.14
R541 VGND.n138 VGND.n94 1309.47
R542 VGND.n148 VGND.n93 1309.47
R543 VGND.n93 VGND.n79 1309.47
R544 VGND.n154 VGND.n80 1309.47
R545 VGND.n155 VGND.n85 1309.47
R546 VGND.n155 VGND.n154 1309.47
R547 VGND.n149 VGND.n84 1309.47
R548 VGND.n149 VGND.n148 1309.47
R549 VGND.n142 VGND.n97 1309.47
R550 VGND.n142 VGND.n94 1309.47
R551 VGND.n13 VGND.n6 1309.47
R552 VGND.n13 VGND.n11 1309.47
R553 VGND.n124 VGND.n106 1309.47
R554 VGND.n12 VGND.n7 1309.47
R555 VGND.n126 VGND.n106 1309.47
R556 VGND.n126 VGND.n107 1309.47
R557 VGND.n111 VGND.n11 1309.47
R558 VGND.n112 VGND.n111 1309.47
R559 VGND.n294 VGND.n12 1309.47
R560 VGND.n294 VGND.n293 1309.47
R561 VGND.t28 VGND.n81 1288.91